1        2  C2H6
  1C 3 0  25  00  00  00  00  00  132  132
  2C 3 0  15  00  00  00  00  00  288  137
2        3  C3H8
  1C 3 0  25  00  00  00  00  00   66  158
  2C 2 0  15  35  00  00  00  00  160  101
  3C 3 0  25  00  00  00  00  00  239  159
3        4  C4H10
  1C 3 0  25  00  00  00  00  00   70  164
  2C 2 0  15  35  00  00  00  00  115  115
  3C 2 0  25  45  00  00  00  00  152  163
  4C 3 0  35  00  00  00  00  00  211  115
4        4  C4H10
  1C 3 0  25  00  00  00  00  00  121  165
  2C 1 0  15  35  45  00  00  00  179  126
  3C 3 0  25  00  00  00  00  00  232  163
  4C 3 0  25  00  00  00  00  00  179   76
5        5  C5H12
  1C 3 0  25  00  00  00  00  00   98  149
  2C 2 0  15  35  00  00  00  00  139  108
  3C 2 0  25  45  00  00  00  00  182  150
  4C 2 0  35  55  00  00  00  00  231  107
  5C 3 0  45  00  00  00  00  00  293  152
6        5  C5H12
  1C 3 0  25  00  00  00  00  00  100  164
  2C 1 0  15  35  55  00  00  00  143  121
  3C 2 0  25  45  00  00  00  00  186  164
  4C 3 0  35  00  00  00  00  00  234  116
  5C 3 0  25  00  00  00  00  00  143   62
7        5  C5H12
  1C 3 0  25  00  00  00  00  00   96  176
  2C 0 0  15  35  45  55  00  00  195  121
  3C 3 0  25  00  00  00  00  00  317  175
  4C 3 0  25  00  00  00  00  00  195   44
  5C 3 0  25  00  00  00  00  00  195  217
8        6  C6H14
  1C 3 0  25  00  00  00  00  00   96  178
  2C 2 0  15  35  00  00  00  00  143  128
  3C 2 0  25  45  00  00  00  00  186  178
  4C 2 0  35  55  00  00  00  00  241  122
  5C 2 0  45  65  00  00  00  00  283  174
  6C 3 0  55  00  00  00  00  00  335  121
9        6  C6H14
  1C 3 0  25  00  00  00  00  00   95  168
  2C 1 0  15  35  65  00  00  00  169  123
  3C 2 0  25  45  00  00  00  00  229  169
  4C 2 0  35  55  00  00  00  00  299  118
  5C 3 0  45  00  00  00  00  00  363  170
  6C 3 0  25  00  00  00  00  00  169   68
10       6  C6H14
  1C 3 0  25  00  00  00  00  00   99  169
  2C 2 0  15  35  00  00  00  00  169  123
  3C 1 0  25  45  65  00  00  00  233  167
  4C 2 0  35  55  00  00  00  00  328  121
  5C 3 0  45  00  00  00  00  00  408  172
  6C 3 0  35  00  00  00  00  00  233  231
11       6  C6H14
  1C 3 0  25  00  00  00  00  00   79  202
  2C 0 0  15  35  55  65  00  00  172  139
  3C 2 0  25  45  00  00  00  00  247  206
  4C 3 0  35  00  00  00  00  00  366  139
  5C 3 0  25  00  00  00  00  00  172   67
  6C 3 0  25  00  00  00  00  00  172  231
12       6  C6H14
  1C 3 0  25  00  00  00  00  00  101  186
  2C 1 0  15  35  55  00  00  00  192  145
  3C 1 0  25  45  65  00  00  00  280  191
  4C 3 0  35  00  00  00  00  00  388  145
  5C 3 0  25  00  00  00  00  00  192   74
  6C 3 0  35  00  00  00  00  00  280  256
13       7  C7H16
  1C 3 0  25  00  00  00  00  00   63  186
  2C 2 0  15  35  00  00  00  00  148  133
  3C 2 0  25  45  00  00  00  00  202  189
  4C 2 0  35  55  00  00  00  00  276  137
  5C 2 0  45  65  00  00  00  00  343  192
  6C 2 0  55  75  00  00  00  00  403  140
  7C 3 0  65  00  00  00  00  00  460  195
14       7  C7H16
  1C 3 0  25  00  00  00  00  00   61  189
  2C 1 0  15  35  75  00  00  00  117  151
  3C 2 0  25  45  00  00  00  00  165  191
  4C 2 0  35  55  00  00  00  00  218  151
  5C 2 0  45  65  00  00  00  00  263  195
  6C 3 0  55  00  00  00  00  00  322  154
  7C 3 0  25  00  00  00  00  00  117   94
15       7  C7H16
  1C 3 0  25  00  00  00  00  00   65  181
  2C 2 0  15  35  00  00  00  00  117  144
  3C 1 0  25  45  75  00  00  00  171  181
  4C 2 0  35  55  00  00  00  00  222  145
  5C 2 0  45  65  00  00  00  00  267  180
  6C 3 0  55  00  00  00  00  00  318  148
  7C 3 0  35  00  00  00  00  00  171  228
16       7  C7H16
  1C 3 0  25  00  00  00  00  00  107  180
  2C 2 0  15  35  00  00  00  00  170  137
  3C 1 0  25  45  65  00  00  00  230  188
  4C 2 0  35  55  00  00  00  00  315  131
  5C 3 0  45  00  00  00  00  00  382  187
  6C 2 0  35  75  00  00  00  00  184  213
  7C 3 0  65  00  00  00  00  00  226  244
17       7  C7H16
  1C 3 0  25  00  00  00  00  00   88  176
  2C 0 0  15  35  65  75  00  00  171  136
  3C 2 0  25  45  00  00  00  00  246  178
  4C 2 0  35  55  00  00  00  00  314  139
  5C 3 0  45  00  00  00  00  00  368  179
  6C 3 0  25  00  00  00  00  00  171   74
  7C 3 0  25  00  00  00  00  00  171  205
18       7  C7H16
  1C 3 0  25  00  00  00  00  00   92  203
  2C 1 0  15  35  65  00  00  00  168  165
  3C 1 0  25  45  75  00  00  00  231  210
  4C 2 0  35  55  00  00  00  00  307  164
  5C 3 0  45  00  00  00  00  00  377  213
  6C 3 0  25  00  00  00  00  00  168   97
  7C 3 0  35  00  00  00  00  00  231  256
19       7  C7H16
  1C 3 0  25  00  00  00  00  00   98  196
  2C 1 0  15  35  65  00  00  00  150  150
  3C 2 0  25  45  00  00  00  00  211  194
  4C 1 0  35  55  75  00  00  00  276  150
  5C 3 0  45  00  00  00  00  00  344  195
  6C 3 0  25  00  00  00  00  00  150   82
  7C 3 0  45  00  00  00  00  00  276   84
20       7  C7H16
  1C 3 0  25  00  00  00  00  00   86  193
  2C 2 0  15  35  00  00  00  00  144  153
  3C 0 0  25  45  65  75  00  00  208  192
  4C 2 0  35  55  00  00  00  00  277  145
  5C 3 0  45  00  00  00  00  00  345  190
  6C 3 0  35  00  00  00  00  00  208  115
  7C 3 0  35  00  00  00  00  00  208  253
21       7  C7H16
  1C 3 0  25  00  00  00  00  00   94  184
  2C 0 0  15  35  55  65  00  00  168  132
  3C 1 0  25  45  75  00  00  00  259  184
  4C 3 0  35  00  00  00  00  00  368  123
  5C 3 0  25  00  00  00  00  00  168   61
  6C 3 0  25  00  00  00  00  00  168  216
  7C 3 0  35  00  00  00  00  00  259  251
22       8  C8H18
  1C 3 0  25  00  00  00  00  00   76  171
  2C 2 0  15  35  00  00  00  00  125  141
  3C 2 0  25  45  00  00  00  00  160  169
  4C 2 0  35  55  00  00  00  00  197  138
  5C 2 0  45  65  00  00  00  00  237  166
  6C 2 0  55  75  00  00  00  00  284  136
  7C 2 0  65  85  00  00  00  00  321  166
  8C 3 0  75  00  00  00  00  00  367  136
23       8  C8H18
  1C 3 0  25  00  00  00  00  00   73  172
  2C 1 0  15  35  85  00  00  00  117  145
  3C 2 0  25  45  00  00  00  00  154  171
  4C 2 0  35  55  00  00  00  00  204  140
  5C 2 0  45  65  00  00  00  00  238  167
  6C 2 0  55  75  00  00  00  00  278  139
  7C 3 0  65  00  00  00  00  00  314  167
  8C 3 0  25  00  00  00  00  00  117   97
24       8  C8H18
  1C 3 0  25  00  00  00  00  00   69  175
  2C 2 0  15  35  00  00  00  00  129  143
  3C 1 0  25  45  85  00  00  00  189  174
  4C 2 0  35  55  00  00  00  00  252  141
  5C 2 0  45  65  00  00  00  00  305  180
  6C 2 0  55  75  00  00  00  00  363  140
  7C 3 0  65  00  00  00  00  00  410  178
  8C 3 0  35  00  00  00  00  00  189  226
25       8  C8H18
  1C 3 0  25  00  00  00  00  00   57  193
  2C 2 0  15  35  00  00  00  00  128  154
  3C 2 0  25  45  00  00  00  00  194  199
  4C 1 0  35  55  85  00  00  00  254  150
  5C 2 0  45  65  00  00  00  00  312  195
  6C 2 0  55  75  00  00  00  00  377  152
  7C 3 0  65  00  00  00  00  00  465  199
  8C 3 0  45  00  00  00  00  00  254   75
26       8  C8H18
  1C 3 0  25  00  00  00  00  00   64  204
  2C 2 0  15  35  00  00  00  00  131  164
  3C 1 0  25  45  75  00  00  00  201  207
  4C 2 0  35  55  00  00  00  00  265  158
  5C 2 0  45  65  00  00  00  00  324  209
  6C 3 0  55  00  00  00  00  00  407  157
  7C 2 0  35  85  00  00  00  00  167  238
  8C 3 0  75  00  00  00  00  00  207  266
27       8  C8H18
  1C 3 0  25  00  00  00  00  00   84  163
  2C 0 0  15  35  75  85  00  00  132  133
  3C 2 0  25  45  00  00  00  00  192  163
  4C 2 0  35  55  00  00  00  00  244  128
  5C 2 0  45  65  00  00  00  00  296  165
  6C 3 0  55  00  00  00  00  00  360  131
  7C 3 0  25  00  00  00  00  00  132   77
  8C 3 0  25  00  00  00  00  00  132  188
28       8  C8H18
  1C 3 0  25  00  00  00  00  00   90  165
  2C 1 0  15  35  75  00  00  00  132  130
  3C 1 0  25  45  85  00  00  00  175  162
  4C 2 0  35  55  00  00  00  00  226  127
  5C 2 0  45  65  00  00  00  00  273  164
  6C 3 0  55  00  00  00  00  00  326  127
  7C 3 0  25  00  00  00  00  00  132   73
  8C 3 0  35  00  00  00  00  00  175  208
29       8  C8H18
  1C 3 0  25  00  00  00  00  00  118  170
  2C 1 0  15  35  75  00  00  00  185  123
  3C 2 0  25  45  00  00  00  00  251  175
  4C 1 0  35  55  85  00  00  00  319  119
  5C 2 0  45  65  00  00  00  00  390  173
  6C 3 0  55  00  00  00  00  00  458  125
  7C 3 0  25  00  00  00  00  00  185   61
  8C 3 0  45  00  00  00  00  00  319   58
30       8  C8H18
  1C 3 0  25  00  00  00  00  00  124  165
  2C 1 0  15  35  75  00  00  00  193  120
  3C 2 0  25  45  00  00  00  00  258  167
  4C 2 0  35  55  00  00  00  00  319  118
  5C 1 0  45  65  85  00  00  00  379  170
  6C 3 0  55  00  00  00  00  00  454  115
  7C 3 0  25  00  00  00  00  00  193   55
  8C 3 0  55  00  00  00  00  00  379  228
31       8  C8H18
  1C 3 0  25  00  00  00  00  00   79  188
  2C 2 0  15  35  00  00  00  00  143  149
  3C 0 0  25  45  75  85  00  00  200  189
  4C 2 0  35  55  00  00  00  00  267  147
  5C 2 0  45  65  00  00  00  00  318  191
  6C 3 0  55  00  00  00  00  00  398  146
  7C 3 0  35  00  00  00  00  00  200  113
  8C 3 0  35  00  00  00  00  00  200  249
32       8  C8H18
  1C 3 0  25  00  00  00  00  00   74  184
  2C 2 0  15  35  00  00  00  00  123  142
  3C 1 0  25  45  75  00  00  00  173  189
  4C 1 0  35  55  85  00  00  00  226  138
  5C 2 0  45  65  00  00  00  00  270  186
  6C 3 0  55  00  00  00  00  00  332  137
  7C 3 0  35  00  00  00  00  00  173  241
  8C 3 0  45  00  00  00  00  00  226   77
33       8  C8H18
  1C 3 0  25  00  00  00  00  00   92  171
  2C 1 0  15  35  65  00  00  00  164  127
  3C 1 0  25  45  75  00  00  00  233  174
  4C 2 0  35  55  00  00  00  00  331  128
  5C 3 0  45  00  00  00  00  00  396  174
  6C 3 0  25  00  00  00  00  00  164   61
  7C 2 0  35  85  00  00  00  00  194  220
  8C 3 0  75  00  00  00  00  00  255  251
34       8  C8H18
  1C 3 0  25  00  00  00  00  00  128  169
  2C 2 0  15  35  00  00  00  00  187  122
  3C 0 0  25  45  65  75  00  00  247  169
  4C 2 0  35  55  00  00  00  00  323  116
  5C 3 0  45  00  00  00  00  00  386  172
  6C 3 0  35  00  00  00  00  00  247   88
  7C 2 0  35  85  00  00  00  00  202  219
  8C 3 0  75  00  00  00  00  00  271  247
35       8  C8H18
  1C 3 0  25  00  00  00  00  00  118  179
  2C 0 0  15  35  65  75  00  00  191  145
  3C 1 0  25  45  85  00  00  00  243  178
  4C 2 0  35  55  00  00  00  00  324  143
  5C 3 0  45  00  00  00  00  00  402  181
  6C 3 0  25  00  00  00  00  00  191   80
  7C 3 0  25  00  00  00  00  00  191  214
  8C 3 0  35  00  00  00  00  00  243  239
36       8  C8H18
  1C 3 0  25  00  00  00  00  00  110  190
  2C 0 0  15  35  65  75  00  00  196  136
  3C 2 0  25  45  00  00  00  00  269  189
  4C 1 0  35  55  85  00  00  00  363  138
  5C 3 0  45  00  00  00  00  00  435  196
  6C 3 0  25  00  00  00  00  00  196   64
  7C 3 0  25  00  00  00  00  00  196  210
  8C 3 0  45  00  00  00  00  00  363   57
37       8  C8H18
  1C 3 0  25  00  00  00  00  00  110  178
  2C 1 0  15  35  65  00  00  00  192  125
  3C 0 0  25  45  75  85  00  00  260  185
  4C 2 0  35  55  00  00  00  00  361  129
  5C 3 0  45  00  00  00  00  00  422  182
  6C 3 0  25  00  00  00  00  00  192   47
  7C 3 0  35  00  00  00  00  00  260   88
  8C 3 0  35  00  00  00  00  00  260  259
38       8  C8H18
  1C 3 0  25  00  00  00  00  00  131  173
  2C 1 0  15  35  65  00  00  00  209  117
  3C 1 0  25  45  75  00  00  00  281  174
  4C 1 0  35  55  85  00  00  00  393  115
  5C 3 0  45  00  00  00  00  00  465  175
  6C 3 0  25  00  00  00  00  00  206   40
  7C 3 0  35  00  00  00  00  00  279  234
  8C 3 0  45  00  00  00  00  00  394   49
39       8  C8H18
  1C 3 0  25  00  00  00  00  00  113  166
  2C 0 0  15  35  55  65  00  00  189  111
  3C 0 0  25  45  75  85  00  00  269  171
  4C 3 0  35  00  00  00  00  00  367  106
  5C 3 0  25  00  00  00  00  00  189   41
  6C 3 0  25  00  00  00  00  00  189  204
  7C 3 0  35  00  00  00  00  00  269   83
  8C 3 0  35  00  00  00  00  00  269  238
40       9  C9H20
  1C 3 0  25  00  00  00  00  00   52  153
  2C 2 0  15  35  00  00  00  00  109  117
  3C 2 0  25  45  00  00  00  00  154  153
  4C 2 0  35  55  00  00  00  00  209  114
  5C 2 0  45  65  00  00  00  00  257  155
  6C 2 0  55  75  00  00  00  00  307  113
  7C 2 0  65  85  00  00  00  00  354  155
  8C 2 0  75  95  00  00  00  00  408  112
  9C 3 0  85  00  00  00  00  00  455  158
41       9  C9H20
  1C 3 0  25  00  00  00  00  00   89  164
  2C 1 0  15  35  95  00  00  00  138  131
  3C 2 0  25  45  00  00  00  00  172  165
  4C 2 0  35  55  00  00  00  00  220  129
  5C 2 0  45  65  00  00  00  00  261  164
  6C 2 0  55  75  00  00  00  00  304  126
  7C 2 0  65  85  00  00  00  00  346  164
  8C 3 0  75  00  00  00  00  00  398  128
  9C 3 0  25  00  00  00  00  00  139   72
42       9  C9H20
  1C 3 0  25  00  00  00  00  00   82  182
  2C 2 0  15  35  00  00  00  00  141  137
  3C 1 0  25  45  95  00  00  00  180  181
  4C 2 0  35  55  00  00  00  00  231  137
  5C 2 0  45  65  00  00  00  00  274  182
  6C 2 0  55  75  00  00  00  00  330  134
  7C 2 0  65  85  00  00  00  00  376  182
  8C 3 0  75  00  00  00  00  00  435  134
  9C 3 0  35  00  00  00  00  00  180  231
43       9  C9H20
  1C 3 0  25  00  00  00  00  00   72  183
  2C 2 0  15  35  00  00  00  00  123  138
  3C 2 0  25  45  00  00  00  00  170  184
  4C 1 0  35  55  95  00  00  00  224  137
  5C 2 0  45  65  00  00  00  00  274  184
  6C 2 0  55  75  00  00  00  00  331  134
  7C 2 0  65  85  00  00  00  00  381  184
  8C 3 0  75  00  00  00  00  00  451  132
  9C 3 0  45  00  00  00  00  00  223   73
44       9  C9H20
  1C 3 0  25  00  00  00  00  00  105  168
  2C 2 0  15  35  00  00  00  00  163  126
  3C 1 0  25  45  85  00  00  00  218  172
  4C 2 0  35  55  00  00  00  00  290  124
  5C 2 0  45  65  00  00  00  00  342  171
  6C 2 0  55  75  00  00  00  00  406  122
  7C 3 0  65  00  00  00  00  00  470  175
  8C 2 0  35  95  00  00  00  00  172  220
  9C 3 0  85  00  00  00  00  00  218  246
45       9  C9H20
  1C 3 0  25  00  00  00  00  00   86  180
  2C 2 0  15  35  00  00  00  00  136  147
  3C 2 0  25  45  00  00  00  00  184  179
  4C 1 0  35  55  85  00  00  00  245  143
  5C 2 0  45  65  00  00  00  00  292  181
  6C 2 0  55  75  00  00  00  00  350  141
  7C 3 0  65  00  00  00  00  00  392  181
  8C 2 0  45  95  00  00  00  00  212   96
  9C 3 0  85  00  00  00  00  00  267   69
46       9  C9H20
  1C 3 0  25  00  00  00  00  00   75  171
  2C 0 0  15  35  85  95  00  00  136  137
  3C 2 0  25  45  00  00  00  00  192  173
  4C 2 0  35  55  00  00  00  00  255  131
  5C 2 0  45  65  00  00  00  00  311  175
  6C 2 0  55  75  00  00  00  00  363  131
  7C 3 0  65  00  00  00  00  00  430  171
  8C 3 0  25  00  00  00  00  00  136   76
  9C 3 0  25  00  00  00  00  00  136  203
47       9  C9H20
  1C 3 0  25  00  00  00  00  00   61  179
  2C 1 0  15  35  85  00  00  00  127  139
  3C 1 0  25  45  95  00  00  00  182  183
  4C 2 0  35  55  00  00  00  00  247  137
  5C 2 0  45  65  00  00  00  00  300  183
  6C 2 0  55  75  00  00  00  00  357  136
  7C 3 0  65  00  00  00  00  00  420  181
  8C 3 0  25  00  00  00  00  00  126   61
  9C 3 0  35  00  00  00  00  00  182  236
48       9  C9H20
  1C 3 0  25  00  00  00  00  00   69  190
  2C 1 0  15  35  85  00  00  00  119  154
  3C 2 0  25  45  00  00  00  00  172  191
  4C 1 0  35  55  95  00  00  00  231  151
  5C 2 0  45  65  00  00  00  00  295  190
  6C 2 0  55  75  00  00  00  00  349  149
  7C 3 0  65  00  00  00  00  00  412  189
  8C 3 0  25  00  00  00  00  00  121   99
  9C 3 0  45  00  00  00  00  00  233   94
49       9  C9H20
  1C 3 0  25  00  00  00  00  00   67  174
  2C 1 0  15  35  85  00  00  00  120  132
  3C 2 0  25  45  00  00  00  00  185  178
  4C 2 0  35  55  00  00  00  00  245  127
  5C 1 0  45  65  95  00  00  00  299  177
  6C 2 0  55  75  00  00  00  00  374  124
  7C 3 0  65  00  00  00  00  00  434  174
  8C 3 0  25  00  00  00  00  00  119   72
  9C 3 0  55  00  00  00  00  00  296  234
50       9  C9H20
  1C 3 0  25  00  00  00  00  00   95  183
  2C 1 0  15  35  85  00  00  00  144  142
  3C 2 0  25  45  00  00  00  00  191  184
  4C 2 0  35  55  00  00  00  00  250  139
  5C 2 0  45  65  00  00  00  00  302  189
  6C 1 0  55  75  95  00  00  00  365  137
  7C 3 0  65  00  00  00  00  00  411  190
  8C 3 0  25  00  00  00  00  00  143   93
  9C 3 0  65  00  00  00  00  00  366   86
51       9  C9H20
  1C 3 0  25  00  00  00  00  00  103  159
  2C 2 0  15  35  00  00  00  00  166  129
  3C 0 0  25  45  85  95  00  00  216  161
  4C 2 0  35  55  00  00  00  00  275  122
  5C 2 0  45  65  00  00  00  00  334  157
  6C 2 0  55  75  00  00  00  00  395  120
  7C 3 0  65  00  00  00  00  00  452  165
  8C 3 0  35  00  00  00  00  00  219   92
  9C 3 0  35  00  00  00  00  00  214  228
52       9  C9H20
  1C 3 0  25  00  00  00  00  00   98  163
  2C 2 0  15  35  00  00  00  00  155  125
  3C 1 0  25  45  85  00  00  00  212  167
  4C 1 0  35  55  95  00  00  00  279  123
  5C 2 0  45  65  00  00  00  00  327  166
  6C 2 0  55  75  00  00  00  00  393  118
  7C 3 0  65  00  00  00  00  00  455  168
  8C 3 0  35  00  00  00  00  00  207  222
  9C 3 0  45  00  00  00  00  00  279   49
53       9  C9H20
  1C 3 0  25  00  00  00  00  00   88  167
  2C 2 0  15  35  00  00  00  00  139  139
  3C 1 0  25  45  85  00  00  00  182  171
  4C 2 0  35  55  00  00  00  00  240  134
  5C 1 0  45  65  95  00  00  00  290  171
  6C 2 0  55  75  00  00  00  00  351  131
  7C 3 0  65  00  00  00  00  00  399  170
  8C 3 0  35  00  00  00  00  00  176  222
  9C 3 0  55  00  00  00  00  00  289  219
54       9  C9H20
  1C 3 0  25  00  00  00  00  00   70  162
  2C 2 0  15  35  00  00  00  00  129  131
  3C 2 0  25  45  00  00  00  00  176  164
  4C 0 0  35  55  85  95  00  00  240  126
  5C 2 0  45  65  00  00  00  00  293  166
  6C 2 0  55  75  00  00  00  00  356  122
  7C 3 0  65  00  00  00  00  00  409  164
  8C 3 0  45  00  00  00  00  00  239   65
  9C 3 0  45  00  00  00  00  00  235  202
55       9  C9H20
  1C 3 0  25  00  00  00  00  00   90  177
  2C 1 0  15  35  75  00  00  00  161  126
  3C 1 0  25  45  85  00  00  00  238  179
  4C 2 0  35  55  00  00  00  00  319  125
  5C 2 0  45  65  00  00  00  00  382  181
  6C 3 0  55  00  00  00  00  00  461  122
  7C 3 0  25  00  00  00  00  00  161   37
  8C 2 0  35  95  00  00  00  00  190  214
  9C 3 0  85  00  00  00  00  00  239  238
56       9  C9H20
  1C 3 0  25  00  00  00  00  00   78  178
  2C 1 0  15  35  75  00  00  00  137  131
  3C 2 0  25  45  00  00  00  00  192  176
  4C 1 0  35  55  85  00  00  00  246  117
  5C 2 0  45  65  00  00  00  00  299  177
  6C 3 0  55  00  00  00  00  00  375  118
  7C 3 0  25  00  00  00  00  00  137   72
  8C 2 0  45  95  00  00  00  00  226   71
  9C 3 0  85  00  00  00  00  00  299   46
57       9  C9H20
  1C 3 0  25  00  00  00  00  00   89  180
  2C 2 0  15  35  00  00  00  00  150  143
  3C 0 0  25  45  75  85  00  00  211  182
  4C 2 0  35  55  00  00  00  00  279  136
  5C 2 0  45  65  00  00  00  00  336  181
  6C 3 0  55  00  00  00  00  00  401  137
  7C 3 0  35  00  00  00  00  00  211   96
  8C 2 0  35  95  00  00  00  00  173  204
  9C 3 0  85  00  00  00  00  00  211  225
58       9  C9H20
  1C 3 0  25  00  00  00  00  00   69  159
  2C 2 0  15  35  00  00  00  00  133  110
  3C 1 0  25  45  75  00  00  00  185  158
  4C 1 0  35  55  85  00  00  00  247  107
  5C 2 0  45  65  00  00  00  00  292  157
  6C 3 0  55  00  00  00  00  00  356  103
  7C 3 0  35  00  00  00  00  00  186  214
  8C 2 0  45  95  00  00  00  00  228   63
  9C 3 0  85  00  00  00  00  00  280   36
59       9  C9H20
  1C 3 0  25  00  00  00  00  00   92  175
  2C 0 0  15  35  75  85  00  00  161  134
  3C 1 0  25  45  95  00  00  00  225  180
  4C 2 0  35  55  00  00  00  00  315  126
  5C 2 0  45  65  00  00  00  00  382  181
  6C 3 0  55  00  00  00  00  00  455  129
  7C 3 0  25  00  00  00  00  00  164   68
  8C 3 0  25  00  00  00  00  00  151  212
  9C 3 0  35  00  00  00  00  00  221  236
60       9  C9H20
  1C 3 0  25  00  00  00  00  00   80  164
  2C 0 0  15  35  75  85  00  00  141  114
  3C 2 0  25  45  00  00  00  00  199  166
  4C 1 0  35  55  95  00  00  00  265  102
  5C 2 0  45  65  00  00  00  00  328  168
  6C 3 0  55  00  00  00  00  00  405  112
  7C 3 0  25  00  00  00  00  00  139   49
  8C 3 0  25  00  00  00  00  00  132  186
  9C 3 0  45  00  00  00  00  00  266   45
61       9  C9H20
  1C 3 0  25  00  00  00  00  00   86  168
  2C 0 0  15  35  75  85  00  00  151  116
  3C 2 0  25  45  00  00  00  00  227  170
  4C 2 0  35  55  00  00  00  00  335  107
  5C 1 0  45  65  95  00  00  00  396  175
  6C 3 0  55  00  00  00  00  00  471  107
  7C 3 0  25  00  00  00  00  00  147   37
  8C 3 0  25  00  00  00  00  00  148  217
  9C 3 0  55  00  00  00  00  00  392  236
62       9  C9H20
  1C 3 0  25  00  00  00  00  00   80  175
  2C 1 0  15  35  75  00  00  00  146  141
  3C 0 0  25  45  85  95  00  00  214  182
  4C 2 0  35  55  00  00  00  00  271  138
  5C 2 0  45  65  00  00  00  00  323  183
  6C 3 0  55  00  00  00  00  00  389  138
  7C 3 0  25  00  00  00  00  00  145   83
  8C 3 0  35  00  00  00  00  00  215  104
  9C 3 0  35  00  00  00  00  00  206  244
63       9  C9H20
  1C 3 0  25  00  00  00  00  00   91  171
  2C 1 0  15  35  75  00  00  00  138  136
  3C 1 0  25  45  85  00  00  00  198  173
  4C 1 0  35  55  95  00  00  00  263  134
  5C 2 0  45  65  00  00  00  00  313  172
  6C 3 0  55  00  00  00  00  00  368  135
  7C 3 0  25  00  00  00  00  00  133   80
  8C 3 0  35  00  00  00  00  00  192  222
  9C 3 0  45  00  00  00  00  00  263   73
64       9  C9H20
  1C 3 0  25  00  00  00  00  00  108  185
  2C 1 0  15  35  75  00  00  00  155  145
  3C 1 0  25  45  85  00  00  00  212  183
  4C 2 0  35  55  00  00  00  00  284  141
  5C 1 0  45  65  95  00  00  00  342  183
  6C 3 0  55  00  00  00  00  00  407  142
  7C 3 0  25  00  00  00  00  00  153   93
  8C 3 0  35  00  00  00  00  00  213  239
  9C 3 0  55  00  00  00  00  00  339  244
65       9  C9H20
  1C 3 0  25  00  00  00  00  00  113  198
  2C 1 0  15  35  75  00  00  00  177  166
  3C 2 0  25  45  00  00  00  00  236  200
  4C 0 0  35  55  85  95  00  00  299  163
  5C 2 0  45  65  00  00  00  00  360  199
  6C 3 0  55  00  00  00  00  00  423  163
  7C 3 0  25  00  00  00  00  00  178  101
  8C 3 0  45  00  00  00  00  00  293  100
  9C 3 0  45  00  00  00  00  00  297  238
66       9  C9H20
  1C 3 0  25  00  00  00  00  00   97  180
  2C 2 0  15  35  00  00  00  00  166  140
  3C 0 0  25  45  75  85  00  00  221  184
  4C 1 0  35  55  95  00  00  00  297  140
  5C 2 0  45  65  00  00  00  00  354  181
  6C 3 0  55  00  00  00  00  00  426  137
  7C 3 0  35  00  00  00  00  00  222   93
  8C 3 0  35  00  00  00  00  00  218  245
  9C 3 0  45  00  00  00  00  00  299   81
67       9  C9H20
  1C 3 0  25  00  00  00  00  00   91  173
  2C 2 0  15  35  00  00  00  00  165  127
  3C 0 0  25  45  65  85  00  00  249  180
  4C 2 0  35  55  00  00  00  00  367  126
  5C 3 0  45  00  00  00  00  00  444  184
  6C 2 0  35  75  00  00  00  00  246   76
  7C 3 0  65  00  00  00  00  00  302   46
  8C 2 0  35  95  00  00  00  00  246  233
  9C 3 0  85  00  00  00  00  00  179  241
68       9  C9H20
  1C 3 0  25  00  00  00  00  00   99  174
  2C 0 0  15  35  65  75  00  00  169  133
  3C 1 0  25  45  85  00  00  00  244  179
  4C 2 0  35  55  00  00  00  00  348  128
  5C 3 0  45  00  00  00  00  00  423  184
  6C 3 0  25  00  00  00  00  00  168   62
  7C 3 0  25  00  00  00  00  00  169  208
  8C 2 0  35  95  00  00  00  00  217  214
  9C 3 0  85  00  00  00  00  00  262  233
69       9  C9H20
  1C 3 0  25  00  00  00  00  00   99  192
  2C 1 0  15  35  65  00  00  00  175  129
  3C 0 0  25  45  75  85  00  00  251  198
  4C 2 0  35  55  00  00  00  00  387  121
  5C 3 0  45  00  00  00  00  00  448  194
  6C 3 0  25  00  00  00  00  00  171   57
  7C 3 0  35  00  00  00  00  00  256  108
  8C 2 0  35  95  00  00  00  00  209  232
  9C 3 0  85  00  00  00  00  00  288  254
70       9  C9H20
  1C 3 0  25  00  00  00  00  00  101  163
  2C 1 0  15  35  65  00  00  00  189  116
  3C 1 0  25  45  85  00  00  00  256  168
  4C 1 0  35  55  75  00  00  00  368  107
  5C 3 0  45  00  00  00  00  00  443  178
  6C 3 0  25  00  00  00  00  00  185   48
  7C 3 0  45  00  00  00  00  00  368   36
  8C 2 0  35  95  00  00  00  00  216  207
  9C 3 0  85  00  00  00  00  00  287  238
71       9  C9H20
  1C 3 0  25  00  00  00  00  00  101  174
  2C 0 0  15  35  65  75  00  00  161  131
  3C 0 0  25  45  85  95  00  00  241  181
  4C 2 0  35  55  00  00  00  00  348  124
  5C 3 0  45  00  00  00  00  00  441  189
  6C 3 0  25  00  00  00  00  00  154   67
  7C 3 0  25  00  00  00  00  00  158  213
  8C 3 0  35  00  00  00  00  00  245  106
  9C 3 0  35  00  00  00  00  00  236  253
72       9  C9H20
  1C 3 0  25  00  00  00  00  00  105  169
  2C 0 0  15  35  65  75  00  00  161  133
  3C 1 0  25  45  85  00  00  00  224  171
  4C 1 0  35  55  95  00  00  00  313  125
  5C 3 0  45  00  00  00  00  00  393  175
  6C 3 0  25  00  00  00  00  00  156   78
  7C 3 0  25  00  00  00  00  00  158  208
  8C 3 0  35  00  00  00  00  00  221  237
  9C 3 0  45  00  00  00  00  00  310   70
73       9  C9H20
  1C 3 0  25  00  00  00  00  00  103  184
  2C 0 0  15  35  65  75  00  00  141  137
  3C 2 0  25  45  00  00  00  00  214  184
  4C 0 0  35  55  85  95  00  00  292  133
  5C 3 0  45  00  00  00  00  00  343  183
  6C 3 0  25  00  00  00  00  00  139   77
  7C 3 0  25  00  00  00  00  00  139  205
  8C 3 0  45  00  00  00  00  00  295   70
  9C 3 0  45  00  00  00  00  00  296  213
74       9  C9H20
  1C 3 0  25  00  00  00  00  00  113  187
  2C 1 0  15  35  65  00  00  00  167  154
  3C 0 0  25  45  75  85  00  00  238  188
  4C 1 0  35  55  95  00  00  00  309  152
  5C 3 0  45  00  00  00  00  00  373  190
  6C 3 0  25  00  00  00  00  00  161   93
  7C 3 0  35  00  00  00  00  00  235  123
  8C 3 0  35  00  00  00  00  00  234  244
  9C 3 0  45  00  00  00  00  00  309   84